data_image0
_chemical_formula_structural       As2GaAlAs4GaAlAs4GaAlAs4GaAlAs4GaAlAs4GaAlAs4Ga2As4Ga2As4Ga2As4AlGaAs4AlGaAs4Ga2As4Ga2As4Ga2As4Ga2As4GaAlAs4GaAlAs4GaAlAs4GaAlAs4GaAlAs4AlAs4AlGa2AlAs4AlGa2AlAs4AlGa2AlAs4AlGa2AlAs4AlGa2AlAs4AlGa2AlAs4Ga4As4Ga4As4Ga4As4GaAl2GaAs4GaAl2GaAs4Ga4As4Ga4As4Ga4As4Ga4As4AlGa2AlAs4AlGa2AlAs4AlGa2AlAs4AlGa2AlAs4AlGa2AlAs4Al2As4AlGa2AlAs4AlGa2AlAs4AlGa2AlAs4AlGa2AlAs4AlGa2AlAs4AlGa2AlAs4Ga4As4Ga4As4Ga4As4GaAl2GaAs4GaAl2GaAs4Ga4As4Ga4As4Ga4As4Ga4As4AlGa2AlAs4AlGa2AlAs4AlGa2AlAs4AlGa2AlAs4AlGa2AlAs4Al2As2
_chemical_formula_sum              "As252 Ga135 Al70"
_cell_length_a       16.884
_cell_length_b       5.628
_cell_length_c       123.816
_cell_angle_alpha    90
_cell_angle_beta     90
_cell_angle_gamma    90

_space_group_name_H-M_alt    "P 1"
_space_group_IT_number       1

loop_
  _space_group_symop_operation_xyz
  'x, y, z'

loop_
  _atom_site_type_symbol
  _atom_site_label
  _atom_site_symmetry_multiplicity
  _atom_site_fract_x
  _atom_site_fract_y
  _atom_site_fract_z
  _atom_site_occupancy
  As  As1       1.0  0.25000  0.37500  0.03409  1.0000
  As  As2       1.0  0.08333  0.87500  0.03409  1.0000
  Ga  Ga1       1.0  0.16667  0.12500  0.06818  1.0000
  Al  Al1       1.0  0.16667  0.62500  0.04545  1.0000
  As  As3       1.0  0.08333  0.37500  0.05682  1.0000
  As  As4       1.0  0.25000  0.87500  0.05682  1.0000
  As  As5       1.0  0.25000  0.37500  0.07955  1.0000
  As  As6       1.0  0.08333  0.87500  0.07955  1.0000
  Ga  Ga2       1.0  0.16667  0.12500  0.11364  1.0000
  Al  Al2       1.0  0.16667  0.62500  0.09091  1.0000
  As  As7       1.0  0.08333  0.37500  0.10227  1.0000
  As  As8       1.0  0.25000  0.87500  0.10227  1.0000
  As  As9       1.0  0.25000  0.37500  0.12500  1.0000
  As  As10      1.0  0.08333  0.87500  0.12500  1.0000
  Ga  Ga3       1.0  0.16667  0.12500  0.15909  1.0000
  Al  Al3       1.0  0.16667  0.62500  0.13636  1.0000
  As  As11      1.0  0.08333  0.37500  0.14773  1.0000
  As  As12      1.0  0.25000  0.87500  0.14773  1.0000
  As  As13      1.0  0.25000  0.37500  0.17045  1.0000
  As  As14      1.0  0.08333  0.87500  0.17045  1.0000
  Ga  Ga4       1.0  0.16667  0.12500  0.20455  1.0000
  Al  Al4       1.0  0.16667  0.62500  0.18182  1.0000
  As  As15      1.0  0.08333  0.37500  0.19318  1.0000
  As  As16      1.0  0.25000  0.87500  0.19318  1.0000
  As  As17      1.0  0.25000  0.37500  0.21591  1.0000
  As  As18      1.0  0.08333  0.87500  0.21591  1.0000
  Ga  Ga5       1.0  0.16667  0.12500  0.25000  1.0000
  Al  Al5       1.0  0.16667  0.62500  0.22727  1.0000
  As  As19      1.0  0.08333  0.37500  0.23864  1.0000
  As  As20      1.0  0.25000  0.87500  0.23864  1.0000
  As  As21      1.0  0.25000  0.37500  0.26136  1.0000
  As  As22      1.0  0.08333  0.87500  0.26136  1.0000
  Ga  Ga6       1.0  0.16667  0.12500  0.29545  1.0000
  Al  Al6       1.0  0.16667  0.62500  0.27273  1.0000
  As  As23      1.0  0.08333  0.37500  0.28409  1.0000
  As  As24      1.0  0.25000  0.87500  0.28409  1.0000
  As  As25      1.0  0.25000  0.37500  0.30682  1.0000
  As  As26      1.0  0.08333  0.87500  0.30682  1.0000
  Ga  Ga7       1.0  0.16667  0.12500  0.34091  1.0000
  Ga  Ga8       1.0  0.16667  0.62500  0.31818  1.0000
  As  As27      1.0  0.08333  0.37500  0.32955  1.0000
  As  As28      1.0  0.25000  0.87500  0.32955  1.0000
  As  As29      1.0  0.25000  0.37500  0.35227  1.0000
  As  As30      1.0  0.08333  0.87500  0.35227  1.0000
  Ga  Ga9       1.0  0.16667  0.12500  0.38636  1.0000
  Ga  Ga10      1.0  0.16667  0.62500  0.36364  1.0000
  As  As31      1.0  0.08333  0.37500  0.37500  1.0000
  As  As32      1.0  0.25000  0.87500  0.37500  1.0000
  As  As33      1.0  0.25000  0.37500  0.39773  1.0000
  As  As34      1.0  0.08333  0.87500  0.39773  1.0000
  Ga  Ga11      1.0  0.16667  0.12500  0.43182  1.0000
  Ga  Ga12      1.0  0.16667  0.62500  0.40909  1.0000
  As  As35      1.0  0.08333  0.37500  0.42045  1.0000
  As  As36      1.0  0.25000  0.87500  0.42045  1.0000
  As  As37      1.0  0.25000  0.37500  0.44318  1.0000
  As  As38      1.0  0.08333  0.87500  0.44318  1.0000
  Al  Al7       1.0  0.16667  0.12500  0.47727  1.0000
  Ga  Ga13      1.0  0.16667  0.62500  0.45455  1.0000
  As  As39      1.0  0.08333  0.37500  0.46591  1.0000
  As  As40      1.0  0.25000  0.87500  0.46591  1.0000
  As  As41      1.0  0.25000  0.37500  0.48864  1.0000
  As  As42      1.0  0.08333  0.87500  0.48864  1.0000
  Al  Al8       1.0  0.16667  0.12500  0.52273  1.0000
  Ga  Ga14      1.0  0.16667  0.62500  0.50000  1.0000
  As  As43      1.0  0.08333  0.37500  0.51136  1.0000
  As  As44      1.0  0.25000  0.87500  0.51136  1.0000
  As  As45      1.0  0.25000  0.37500  0.53409  1.0000
  As  As46      1.0  0.08333  0.87500  0.53409  1.0000
  Ga  Ga15      1.0  0.16667  0.12500  0.56818  1.0000
  Ga  Ga16      1.0  0.16667  0.62500  0.54545  1.0000
  As  As47      1.0  0.08333  0.37500  0.55682  1.0000
  As  As48      1.0  0.25000  0.87500  0.55682  1.0000
  As  As49      1.0  0.25000  0.37500  0.57955  1.0000
  As  As50      1.0  0.08333  0.87500  0.57955  1.0000
  Ga  Ga17      1.0  0.16667  0.12500  0.61364  1.0000
  Ga  Ga18      1.0  0.16667  0.62500  0.59091  1.0000
  As  As51      1.0  0.08333  0.37500  0.60227  1.0000
  As  As52      1.0  0.25000  0.87500  0.60227  1.0000
  As  As53      1.0  0.25000  0.37500  0.62500  1.0000
  As  As54      1.0  0.08333  0.87500  0.62500  1.0000
  Ga  Ga19      1.0  0.16667  0.12500  0.65909  1.0000
  Ga  Ga20      1.0  0.16667  0.62500  0.63636  1.0000
  As  As55      1.0  0.08333  0.37500  0.64773  1.0000
  As  As56      1.0  0.25000  0.87500  0.64773  1.0000
  As  As57      1.0  0.25000  0.37500  0.67045  1.0000
  As  As58      1.0  0.08333  0.87500  0.67045  1.0000
  Ga  Ga21      1.0  0.16667  0.12500  0.70455  1.0000
  Ga  Ga22      1.0  0.16667  0.62500  0.68182  1.0000
  As  As59      1.0  0.08333  0.37500  0.69318  1.0000
  As  As60      1.0  0.25000  0.87500  0.69318  1.0000
  As  As61      1.0  0.25000  0.37500  0.71591  1.0000
  As  As62      1.0  0.08333  0.87500  0.71591  1.0000
  Ga  Ga23      1.0  0.16667  0.12500  0.75000  1.0000
  Al  Al9       1.0  0.16667  0.62500  0.72727  1.0000
  As  As63      1.0  0.08333  0.37500  0.73864  1.0000
  As  As64      1.0  0.25000  0.87500  0.73864  1.0000
  As  As65      1.0  0.25000  0.37500  0.76136  1.0000
  As  As66      1.0  0.08333  0.87500  0.76136  1.0000
  Ga  Ga24      1.0  0.16667  0.12500  0.79545  1.0000
  Al  Al10      1.0  0.16667  0.62500  0.77273  1.0000
  As  As67      1.0  0.08333  0.37500  0.78409  1.0000
  As  As68      1.0  0.25000  0.87500  0.78409  1.0000
  As  As69      1.0  0.25000  0.37500  0.80682  1.0000
  As  As70      1.0  0.08333  0.87500  0.80682  1.0000
  Ga  Ga25      1.0  0.16667  0.12500  0.84091  1.0000
  Al  Al11      1.0  0.16667  0.62500  0.81818  1.0000
  As  As71      1.0  0.08333  0.37500  0.82955  1.0000
  As  As72      1.0  0.25000  0.87500  0.82955  1.0000
  As  As73      1.0  0.25000  0.37500  0.85227  1.0000
  As  As74      1.0  0.08333  0.87500  0.85227  1.0000
  Ga  Ga26      1.0  0.16667  0.12500  0.88636  1.0000
  Al  Al12      1.0  0.16667  0.62500  0.86364  1.0000
  As  As75      1.0  0.08333  0.37500  0.87500  1.0000
  As  As76      1.0  0.25000  0.87500  0.87500  1.0000
  As  As77      1.0  0.25000  0.37500  0.89773  1.0000
  As  As78      1.0  0.08333  0.87500  0.89773  1.0000
  Ga  Ga27      1.0  0.16667  0.12500  0.93182  1.0000
  Al  Al13      1.0  0.16667  0.62500  0.90909  1.0000
  As  As79      1.0  0.08333  0.37500  0.92045  1.0000
  As  As80      1.0  0.25000  0.87500  0.92045  1.0000
  As  As81      1.0  0.25000  0.37500  0.94318  1.0000
  As  As82      1.0  0.08333  0.87500  0.94318  1.0000
  Al  Al14      1.0  0.16667  0.62500  0.95455  1.0000
  As  As83      1.0  0.08333  0.37500  0.96591  1.0000
  As  As84      1.0  0.25000  0.87500  0.96591  1.0000
  As  As85      1.0  0.58333  0.37500  0.03409  1.0000
  As  As86      1.0  0.41667  0.87500  0.03409  1.0000
  Al  Al15      1.0  0.33333  0.12500  0.04545  1.0000
  Ga  Ga28      1.0  0.33333  0.62500  0.06818  1.0000
  Ga  Ga29      1.0  0.50000  0.12500  0.06818  1.0000
  Al  Al16      1.0  0.50000  0.62500  0.04545  1.0000
  As  As87      1.0  0.41667  0.37500  0.05682  1.0000
  As  As88      1.0  0.58333  0.87500  0.05682  1.0000
  As  As89      1.0  0.58333  0.37500  0.07955  1.0000
  As  As90      1.0  0.41667  0.87500  0.07955  1.0000
  Al  Al17      1.0  0.33333  0.12500  0.09091  1.0000
  Ga  Ga30      1.0  0.33333  0.62500  0.11364  1.0000
  Ga  Ga31      1.0  0.50000  0.12500  0.11364  1.0000
  Al  Al18      1.0  0.50000  0.62500  0.09091  1.0000
  As  As91      1.0  0.41667  0.37500  0.10227  1.0000
  As  As92      1.0  0.58333  0.87500  0.10227  1.0000
  As  As93      1.0  0.58333  0.37500  0.12500  1.0000
  As  As94      1.0  0.41667  0.87500  0.12500  1.0000
  Al  Al19      1.0  0.33333  0.12500  0.13636  1.0000
  Ga  Ga32      1.0  0.33333  0.62500  0.15909  1.0000
  Ga  Ga33      1.0  0.50000  0.12500  0.15909  1.0000
  Al  Al20      1.0  0.50000  0.62500  0.13636  1.0000
  As  As95      1.0  0.41667  0.37500  0.14773  1.0000
  As  As96      1.0  0.58333  0.87500  0.14773  1.0000
  As  As97      1.0  0.58333  0.37500  0.17045  1.0000
  As  As98      1.0  0.41667  0.87500  0.17045  1.0000
  Al  Al21      1.0  0.33333  0.12500  0.18182  1.0000
  Ga  Ga34      1.0  0.33333  0.62500  0.20455  1.0000
  Ga  Ga35      1.0  0.50000  0.12500  0.20455  1.0000
  Al  Al22      1.0  0.50000  0.62500  0.18182  1.0000
  As  As99      1.0  0.41667  0.37500  0.19318  1.0000
  As  As100     1.0  0.58333  0.87500  0.19318  1.0000
  As  As101     1.0  0.58333  0.37500  0.21591  1.0000
  As  As102     1.0  0.41667  0.87500  0.21591  1.0000
  Al  Al23      1.0  0.33333  0.12500  0.22727  1.0000
  Ga  Ga36      1.0  0.33333  0.62500  0.25000  1.0000
  Ga  Ga37      1.0  0.50000  0.12500  0.25000  1.0000
  Al  Al24      1.0  0.50000  0.62500  0.22727  1.0000
  As  As103     1.0  0.41667  0.37500  0.23864  1.0000
  As  As104     1.0  0.58333  0.87500  0.23864  1.0000
  As  As105     1.0  0.58333  0.37500  0.26136  1.0000
  As  As106     1.0  0.41667  0.87500  0.26136  1.0000
  Al  Al25      1.0  0.33333  0.12500  0.27273  1.0000
  Ga  Ga38      1.0  0.33333  0.62500  0.29545  1.0000
  Ga  Ga39      1.0  0.50000  0.12500  0.29545  1.0000
  Al  Al26      1.0  0.50000  0.62500  0.27273  1.0000
  As  As107     1.0  0.41667  0.37500  0.28409  1.0000
  As  As108     1.0  0.58333  0.87500  0.28409  1.0000
  As  As109     1.0  0.58333  0.37500  0.30682  1.0000
  As  As110     1.0  0.41667  0.87500  0.30682  1.0000
  Ga  Ga40      1.0  0.33333  0.12500  0.31818  1.0000
  Ga  Ga41      1.0  0.33333  0.62500  0.34091  1.0000
  Ga  Ga42      1.0  0.50000  0.12500  0.34091  1.0000
  Ga  Ga43      1.0  0.50000  0.62500  0.31818  1.0000
  As  As111     1.0  0.41667  0.37500  0.32955  1.0000
  As  As112     1.0  0.58333  0.87500  0.32955  1.0000
  As  As113     1.0  0.58333  0.37500  0.35227  1.0000
  As  As114     1.0  0.41667  0.87500  0.35227  1.0000
  Ga  Ga44      1.0  0.33333  0.12500  0.36364  1.0000
  Ga  Ga45      1.0  0.33333  0.62500  0.38636  1.0000
  Ga  Ga46      1.0  0.50000  0.12500  0.38636  1.0000
  Ga  Ga47      1.0  0.50000  0.62500  0.36364  1.0000
  As  As115     1.0  0.41667  0.37500  0.37500  1.0000
  As  As116     1.0  0.58333  0.87500  0.37500  1.0000
  As  As117     1.0  0.58333  0.37500  0.39773  1.0000
  As  As118     1.0  0.41667  0.87500  0.39773  1.0000
  Ga  Ga48      1.0  0.33333  0.12500  0.40909  1.0000
  Ga  Ga49      1.0  0.33333  0.62500  0.43182  1.0000
  Ga  Ga50      1.0  0.50000  0.12500  0.43182  1.0000
  Ga  Ga51      1.0  0.50000  0.62500  0.40909  1.0000
  As  As119     1.0  0.41667  0.37500  0.42045  1.0000
  As  As120     1.0  0.58333  0.87500  0.42045  1.0000
  As  As121     1.0  0.58333  0.37500  0.44318  1.0000
  As  As122     1.0  0.41667  0.87500  0.44318  1.0000
  Ga  Ga52      1.0  0.33333  0.12500  0.45455  1.0000
  Al  Al27      1.0  0.33333  0.62500  0.47727  1.0000
  Al  Al28      1.0  0.50000  0.12500  0.47727  1.0000
  Ga  Ga53      1.0  0.50000  0.62500  0.45455  1.0000
  As  As123     1.0  0.41667  0.37500  0.46591  1.0000
  As  As124     1.0  0.58333  0.87500  0.46591  1.0000
  As  As125     1.0  0.58333  0.37500  0.48864  1.0000
  As  As126     1.0  0.41667  0.87500  0.48864  1.0000
  Ga  Ga54      1.0  0.33333  0.12500  0.50000  1.0000
  Al  Al29      1.0  0.33333  0.62500  0.52273  1.0000
  Al  Al30      1.0  0.50000  0.12500  0.52273  1.0000
  Ga  Ga55      1.0  0.50000  0.62500  0.50000  1.0000
  As  As127     1.0  0.41667  0.37500  0.51136  1.0000
  As  As128     1.0  0.58333  0.87500  0.51136  1.0000
  As  As129     1.0  0.58333  0.37500  0.53409  1.0000
  As  As130     1.0  0.41667  0.87500  0.53409  1.0000
  Ga  Ga56      1.0  0.33333  0.12500  0.54545  1.0000
  Ga  Ga57      1.0  0.33333  0.62500  0.56818  1.0000
  Ga  Ga58      1.0  0.50000  0.12500  0.56818  1.0000
  Ga  Ga59      1.0  0.50000  0.62500  0.54545  1.0000
  As  As131     1.0  0.41667  0.37500  0.55682  1.0000
  As  As132     1.0  0.58333  0.87500  0.55682  1.0000
  As  As133     1.0  0.58333  0.37500  0.57955  1.0000
  As  As134     1.0  0.41667  0.87500  0.57955  1.0000
  Ga  Ga60      1.0  0.33333  0.12500  0.59091  1.0000
  Ga  Ga61      1.0  0.33333  0.62500  0.61364  1.0000
  Ga  Ga62      1.0  0.50000  0.12500  0.61364  1.0000
  Ga  Ga63      1.0  0.50000  0.62500  0.59091  1.0000
  As  As135     1.0  0.41667  0.37500  0.60227  1.0000
  As  As136     1.0  0.58333  0.87500  0.60227  1.0000
  As  As137     1.0  0.58333  0.37500  0.62500  1.0000
  As  As138     1.0  0.41667  0.87500  0.62500  1.0000
  Ga  Ga64      1.0  0.33333  0.12500  0.63636  1.0000
  Ga  Ga65      1.0  0.33333  0.62500  0.65909  1.0000
  Ga  Ga66      1.0  0.50000  0.12500  0.65909  1.0000
  Ga  Ga67      1.0  0.50000  0.62500  0.63636  1.0000
  As  As139     1.0  0.41667  0.37500  0.64773  1.0000
  As  As140     1.0  0.58333  0.87500  0.64773  1.0000
  As  As141     1.0  0.58333  0.37500  0.67045  1.0000
  As  As142     1.0  0.41667  0.87500  0.67045  1.0000
  Ga  Ga68      1.0  0.33333  0.12500  0.68182  1.0000
  Ga  Ga69      1.0  0.33333  0.62500  0.70455  1.0000
  Ga  Ga70      1.0  0.50000  0.12500  0.70455  1.0000
  Ga  Ga71      1.0  0.50000  0.62500  0.68182  1.0000
  As  As143     1.0  0.41667  0.37500  0.69318  1.0000
  As  As144     1.0  0.58333  0.87500  0.69318  1.0000
  As  As145     1.0  0.58333  0.37500  0.71591  1.0000
  As  As146     1.0  0.41667  0.87500  0.71591  1.0000
  Al  Al31      1.0  0.33333  0.12500  0.72727  1.0000
  Ga  Ga72      1.0  0.33333  0.62500  0.75000  1.0000
  Ga  Ga73      1.0  0.50000  0.12500  0.75000  1.0000
  Al  Al32      1.0  0.50000  0.62500  0.72727  1.0000
  As  As147     1.0  0.41667  0.37500  0.73864  1.0000
  As  As148     1.0  0.58333  0.87500  0.73864  1.0000
  As  As149     1.0  0.58333  0.37500  0.76136  1.0000
  As  As150     1.0  0.41667  0.87500  0.76136  1.0000
  Al  Al33      1.0  0.33333  0.12500  0.77273  1.0000
  Ga  Ga74      1.0  0.33333  0.62500  0.79545  1.0000
  Ga  Ga75      1.0  0.50000  0.12500  0.79545  1.0000
  Al  Al34      1.0  0.50000  0.62500  0.77273  1.0000
  As  As151     1.0  0.41667  0.37500  0.78409  1.0000
  As  As152     1.0  0.58333  0.87500  0.78409  1.0000
  As  As153     1.0  0.58333  0.37500  0.80682  1.0000
  As  As154     1.0  0.41667  0.87500  0.80682  1.0000
  Al  Al35      1.0  0.33333  0.12500  0.81818  1.0000
  Ga  Ga76      1.0  0.33333  0.62500  0.84091  1.0000
  Ga  Ga77      1.0  0.50000  0.12500  0.84091  1.0000
  Al  Al36      1.0  0.50000  0.62500  0.81818  1.0000
  As  As155     1.0  0.41667  0.37500  0.82955  1.0000
  As  As156     1.0  0.58333  0.87500  0.82955  1.0000
  As  As157     1.0  0.58333  0.37500  0.85227  1.0000
  As  As158     1.0  0.41667  0.87500  0.85227  1.0000
  Al  Al37      1.0  0.33333  0.12500  0.86364  1.0000
  Ga  Ga78      1.0  0.33333  0.62500  0.88636  1.0000
  Ga  Ga79      1.0  0.50000  0.12500  0.88636  1.0000
  Al  Al38      1.0  0.50000  0.62500  0.86364  1.0000
  As  As159     1.0  0.41667  0.37500  0.87500  1.0000
  As  As160     1.0  0.58333  0.87500  0.87500  1.0000
  As  As161     1.0  0.58333  0.37500  0.89773  1.0000
  As  As162     1.0  0.41667  0.87500  0.89773  1.0000
  Al  Al39      1.0  0.33333  0.12500  0.90909  1.0000
  Ga  Ga80      1.0  0.33333  0.62500  0.93182  1.0000
  Ga  Ga81      1.0  0.50000  0.12500  0.93182  1.0000
  Al  Al40      1.0  0.50000  0.62500  0.90909  1.0000
  As  As163     1.0  0.41667  0.37500  0.92045  1.0000
  As  As164     1.0  0.58333  0.87500  0.92045  1.0000
  As  As165     1.0  0.58333  0.37500  0.94318  1.0000
  As  As166     1.0  0.41667  0.87500  0.94318  1.0000
  Al  Al41      1.0  0.33333  0.12500  0.95455  1.0000
  Al  Al42      1.0  0.50000  0.62500  0.95455  1.0000
  As  As167     1.0  0.41667  0.37500  0.96591  1.0000
  As  As168     1.0  0.58333  0.87500  0.96591  1.0000
  As  As169     1.0  0.91667  0.37500  0.03409  1.0000
  As  As170     1.0  0.75000  0.87500  0.03409  1.0000
  Al  Al43      1.0  0.66667  0.12500  0.04545  1.0000
  Ga  Ga82      1.0  0.66667  0.62500  0.06818  1.0000
  Ga  Ga83      1.0  0.83333  0.12500  0.06818  1.0000
  Al  Al44      1.0  0.83333  0.62500  0.04545  1.0000
  As  As171     1.0  0.75000  0.37500  0.05682  1.0000
  As  As172     1.0  0.91667  0.87500  0.05682  1.0000
  As  As173     1.0  0.91667  0.37500  0.07955  1.0000
  As  As174     1.0  0.75000  0.87500  0.07955  1.0000
  Al  Al45      1.0  0.66667  0.12500  0.09091  1.0000
  Ga  Ga84      1.0  0.66667  0.62500  0.11364  1.0000
  Ga  Ga85      1.0  0.83333  0.12500  0.11364  1.0000
  Al  Al46      1.0  0.83333  0.62500  0.09091  1.0000
  As  As175     1.0  0.75000  0.37500  0.10227  1.0000
  As  As176     1.0  0.91667  0.87500  0.10227  1.0000
  As  As177     1.0  0.91667  0.37500  0.12500  1.0000
  As  As178     1.0  0.75000  0.87500  0.12500  1.0000
  Al  Al47      1.0  0.66667  0.12500  0.13636  1.0000
  Ga  Ga86      1.0  0.66667  0.62500  0.15909  1.0000
  Ga  Ga87      1.0  0.83333  0.12500  0.15909  1.0000
  Al  Al48      1.0  0.83333  0.62500  0.13636  1.0000
  As  As179     1.0  0.75000  0.37500  0.14773  1.0000
  As  As180     1.0  0.91667  0.87500  0.14773  1.0000
  As  As181     1.0  0.91667  0.37500  0.17045  1.0000
  As  As182     1.0  0.75000  0.87500  0.17045  1.0000
  Al  Al49      1.0  0.66667  0.12500  0.18182  1.0000
  Ga  Ga88      1.0  0.66667  0.62500  0.20455  1.0000
  Ga  Ga89      1.0  0.83333  0.12500  0.20455  1.0000
  Al  Al50      1.0  0.83333  0.62500  0.18182  1.0000
  As  As183     1.0  0.75000  0.37500  0.19318  1.0000
  As  As184     1.0  0.91667  0.87500  0.19318  1.0000
  As  As185     1.0  0.91667  0.37500  0.21591  1.0000
  As  As186     1.0  0.75000  0.87500  0.21591  1.0000
  Al  Al51      1.0  0.66667  0.12500  0.22727  1.0000
  Ga  Ga90      1.0  0.66667  0.62500  0.25000  1.0000
  Ga  Ga91      1.0  0.83333  0.12500  0.25000  1.0000
  Al  Al52      1.0  0.83333  0.62500  0.22727  1.0000
  As  As187     1.0  0.75000  0.37500  0.23864  1.0000
  As  As188     1.0  0.91667  0.87500  0.23864  1.0000
  As  As189     1.0  0.91667  0.37500  0.26136  1.0000
  As  As190     1.0  0.75000  0.87500  0.26136  1.0000
  Al  Al53      1.0  0.66667  0.12500  0.27273  1.0000
  Ga  Ga92      1.0  0.66667  0.62500  0.29545  1.0000
  Ga  Ga93      1.0  0.83333  0.12500  0.29545  1.0000
  Al  Al54      1.0  0.83333  0.62500  0.27273  1.0000
  As  As191     1.0  0.75000  0.37500  0.28409  1.0000
  As  As192     1.0  0.91667  0.87500  0.28409  1.0000
  As  As193     1.0  0.91667  0.37500  0.30682  1.0000
  As  As194     1.0  0.75000  0.87500  0.30682  1.0000
  Ga  Ga94      1.0  0.66667  0.12500  0.31818  1.0000
  Ga  Ga95      1.0  0.66667  0.62500  0.34091  1.0000
  Ga  Ga96      1.0  0.83333  0.12500  0.34091  1.0000
  Ga  Ga97      1.0  0.83333  0.62500  0.31818  1.0000
  As  As195     1.0  0.75000  0.37500  0.32955  1.0000
  As  As196     1.0  0.91667  0.87500  0.32955  1.0000
  As  As197     1.0  0.91667  0.37500  0.35227  1.0000
  As  As198     1.0  0.75000  0.87500  0.35227  1.0000
  Ga  Ga98      1.0  0.66667  0.12500  0.36364  1.0000
  Ga  Ga99      1.0  0.66667  0.62500  0.38636  1.0000
  Ga  Ga100     1.0  0.83333  0.12500  0.38636  1.0000
  Ga  Ga101     1.0  0.83333  0.62500  0.36364  1.0000
  As  As199     1.0  0.75000  0.37500  0.37500  1.0000
  As  As200     1.0  0.91667  0.87500  0.37500  1.0000
  As  As201     1.0  0.91667  0.37500  0.39773  1.0000
  As  As202     1.0  0.75000  0.87500  0.39773  1.0000
  Ga  Ga102     1.0  0.66667  0.12500  0.40909  1.0000
  Ga  Ga103     1.0  0.66667  0.62500  0.43182  1.0000
  Ga  Ga104     1.0  0.83333  0.12500  0.43182  1.0000
  Ga  Ga105     1.0  0.83333  0.62500  0.40909  1.0000
  As  As203     1.0  0.75000  0.37500  0.42045  1.0000
  As  As204     1.0  0.91667  0.87500  0.42045  1.0000
  As  As205     1.0  0.91667  0.37500  0.44318  1.0000
  As  As206     1.0  0.75000  0.87500  0.44318  1.0000
  Ga  Ga106     1.0  0.66667  0.12500  0.45455  1.0000
  Al  Al55      1.0  0.66667  0.62500  0.47727  1.0000
  Al  Al56      1.0  0.83333  0.12500  0.47727  1.0000
  Ga  Ga107     1.0  0.83333  0.62500  0.45455  1.0000
  As  As207     1.0  0.75000  0.37500  0.46591  1.0000
  As  As208     1.0  0.91667  0.87500  0.46591  1.0000
  As  As209     1.0  0.91667  0.37500  0.48864  1.0000
  As  As210     1.0  0.75000  0.87500  0.48864  1.0000
  Ga  Ga108     1.0  0.66667  0.12500  0.50000  1.0000
  Al  Al57      1.0  0.66667  0.62500  0.52273  1.0000
  Al  Al58      1.0  0.83333  0.12500  0.52273  1.0000
  Ga  Ga109     1.0  0.83333  0.62500  0.50000  1.0000
  As  As211     1.0  0.75000  0.37500  0.51136  1.0000
  As  As212     1.0  0.91667  0.87500  0.51136  1.0000
  As  As213     1.0  0.91667  0.37500  0.53409  1.0000
  As  As214     1.0  0.75000  0.87500  0.53409  1.0000
  Ga  Ga110     1.0  0.66667  0.12500  0.54545  1.0000
  Ga  Ga111     1.0  0.66667  0.62500  0.56818  1.0000
  Ga  Ga112     1.0  0.83333  0.12500  0.56818  1.0000
  Ga  Ga113     1.0  0.83333  0.62500  0.54545  1.0000
  As  As215     1.0  0.75000  0.37500  0.55682  1.0000
  As  As216     1.0  0.91667  0.87500  0.55682  1.0000
  As  As217     1.0  0.91667  0.37500  0.57955  1.0000
  As  As218     1.0  0.75000  0.87500  0.57955  1.0000
  Ga  Ga114     1.0  0.66667  0.12500  0.59091  1.0000
  Ga  Ga115     1.0  0.66667  0.62500  0.61364  1.0000
  Ga  Ga116     1.0  0.83333  0.12500  0.61364  1.0000
  Ga  Ga117     1.0  0.83333  0.62500  0.59091  1.0000
  As  As219     1.0  0.75000  0.37500  0.60227  1.0000
  As  As220     1.0  0.91667  0.87500  0.60227  1.0000
  As  As221     1.0  0.91667  0.37500  0.62500  1.0000
  As  As222     1.0  0.75000  0.87500  0.62500  1.0000
  Ga  Ga118     1.0  0.66667  0.12500  0.63636  1.0000
  Ga  Ga119     1.0  0.66667  0.62500  0.65909  1.0000
  Ga  Ga120     1.0  0.83333  0.12500  0.65909  1.0000
  Ga  Ga121     1.0  0.83333  0.62500  0.63636  1.0000
  As  As223     1.0  0.75000  0.37500  0.64773  1.0000
  As  As224     1.0  0.91667  0.87500  0.64773  1.0000
  As  As225     1.0  0.91667  0.37500  0.67045  1.0000
  As  As226     1.0  0.75000  0.87500  0.67045  1.0000
  Ga  Ga122     1.0  0.66667  0.12500  0.68182  1.0000
  Ga  Ga123     1.0  0.66667  0.62500  0.70455  1.0000
  Ga  Ga124     1.0  0.83333  0.12500  0.70455  1.0000
  Ga  Ga125     1.0  0.83333  0.62500  0.68182  1.0000
  As  As227     1.0  0.75000  0.37500  0.69318  1.0000
  As  As228     1.0  0.91667  0.87500  0.69318  1.0000
  As  As229     1.0  0.91667  0.37500  0.71591  1.0000
  As  As230     1.0  0.75000  0.87500  0.71591  1.0000
  Al  Al59      1.0  0.66667  0.12500  0.72727  1.0000
  Ga  Ga126     1.0  0.66667  0.62500  0.75000  1.0000
  Ga  Ga127     1.0  0.83333  0.12500  0.75000  1.0000
  Al  Al60      1.0  0.83333  0.62500  0.72727  1.0000
  As  As231     1.0  0.75000  0.37500  0.73864  1.0000
  As  As232     1.0  0.91667  0.87500  0.73864  1.0000
  As  As233     1.0  0.91667  0.37500  0.76136  1.0000
  As  As234     1.0  0.75000  0.87500  0.76136  1.0000
  Al  Al61      1.0  0.66667  0.12500  0.77273  1.0000
  Ga  Ga128     1.0  0.66667  0.62500  0.79545  1.0000
  Ga  Ga129     1.0  0.83333  0.12500  0.79545  1.0000
  Al  Al62      1.0  0.83333  0.62500  0.77273  1.0000
  As  As235     1.0  0.75000  0.37500  0.78409  1.0000
  As  As236     1.0  0.91667  0.87500  0.78409  1.0000
  As  As237     1.0  0.91667  0.37500  0.80682  1.0000
  As  As238     1.0  0.75000  0.87500  0.80682  1.0000
  Al  Al63      1.0  0.66667  0.12500  0.81818  1.0000
  Ga  Ga130     1.0  0.66667  0.62500  0.84091  1.0000
  Ga  Ga131     1.0  0.83333  0.12500  0.84091  1.0000
  Al  Al64      1.0  0.83333  0.62500  0.81818  1.0000
  As  As239     1.0  0.75000  0.37500  0.82955  1.0000
  As  As240     1.0  0.91667  0.87500  0.82955  1.0000
  As  As241     1.0  0.91667  0.37500  0.85227  1.0000
  As  As242     1.0  0.75000  0.87500  0.85227  1.0000
  Al  Al65      1.0  0.66667  0.12500  0.86364  1.0000
  Ga  Ga132     1.0  0.66667  0.62500  0.88636  1.0000
  Ga  Ga133     1.0  0.83333  0.12500  0.88636  1.0000
  Al  Al66      1.0  0.83333  0.62500  0.86364  1.0000
  As  As243     1.0  0.75000  0.37500  0.87500  1.0000
  As  As244     1.0  0.91667  0.87500  0.87500  1.0000
  As  As245     1.0  0.91667  0.37500  0.89773  1.0000
  As  As246     1.0  0.75000  0.87500  0.89773  1.0000
  Al  Al67      1.0  0.66667  0.12500  0.90909  1.0000
  Ga  Ga134     1.0  0.66667  0.62500  0.93182  1.0000
  Ga  Ga135     1.0  0.83333  0.12500  0.93182  1.0000
  Al  Al68      1.0  0.83333  0.62500  0.90909  1.0000
  As  As247     1.0  0.75000  0.37500  0.92045  1.0000
  As  As248     1.0  0.91667  0.87500  0.92045  1.0000
  As  As249     1.0  0.91667  0.37500  0.94318  1.0000
  As  As250     1.0  0.75000  0.87500  0.94318  1.0000
  Al  Al69      1.0  0.66667  0.12500  0.95455  1.0000
  Al  Al70      1.0  0.83333  0.62500  0.95455  1.0000
  As  As251     1.0  0.75000  0.37500  0.96591  1.0000
  As  As252     1.0  0.91667  0.87500  0.96591  1.0000
