data_image0
_chemical_formula_structural       As2AlGa2AlAs4AlGa2AlAs4AlGa2AlAs4AlGa2AlAs4Ga4As4Ga4As4GaAl2GaAs4Ga4As4AlGa2AlAs4AlGa2AlAs4AlGa2AlAs4Al2As4AlGa2AlAs4AlGa2AlAs4AlGa2AlAs4AlGa2AlAs4Ga4As4Ga4As4GaAl2GaAs4Ga4As4AlGa2AlAs4AlGa2AlAs4AlGa2AlAs4Al2As2
_chemical_formula_sum              "As96 Al36 Ga56"
_cell_length_a       11.256
_cell_length_b       5.628
_cell_length_c       73.164
_cell_angle_alpha    90
_cell_angle_beta     90
_cell_angle_gamma    90

_space_group_name_H-M_alt    "P 1"
_space_group_IT_number       1

loop_
  _space_group_symop_operation_xyz
  'x, y, z'

loop_
  _atom_site_type_symbol
  _atom_site_label
  _atom_site_symmetry_multiplicity
  _atom_site_fract_x
  _atom_site_fract_y
  _atom_site_fract_z
  _atom_site_occupancy
  As  As1       1.0  0.37500  0.25000  0.05769  1.0000
  As  As2       1.0  0.12500  0.75000  0.05769  1.0000
  Al  Al1       1.0  0.00000  0.00000  0.07692  1.0000
  Ga  Ga1       1.0  0.00000  0.50000  0.11538  1.0000
  Ga  Ga2       1.0  0.25000  0.00000  0.11538  1.0000
  Al  Al2       1.0  0.25000  0.50000  0.07692  1.0000
  As  As3       1.0  0.12500  0.25000  0.09615  1.0000
  As  As4       1.0  0.37500  0.75000  0.09615  1.0000
  As  As5       1.0  0.37500  0.25000  0.13462  1.0000
  As  As6       1.0  0.12500  0.75000  0.13462  1.0000
  Al  Al3       1.0  0.00000  0.00000  0.15385  1.0000
  Ga  Ga3       1.0  0.00000  0.50000  0.19231  1.0000
  Ga  Ga4       1.0  0.25000  0.00000  0.19231  1.0000
  Al  Al4       1.0  0.25000  0.50000  0.15385  1.0000
  As  As7       1.0  0.12500  0.25000  0.17308  1.0000
  As  As8       1.0  0.37500  0.75000  0.17308  1.0000
  As  As9       1.0  0.37500  0.25000  0.21154  1.0000
  As  As10      1.0  0.12500  0.75000  0.21154  1.0000
  Al  Al5       1.0  0.00000  0.00000  0.23077  1.0000
  Ga  Ga5       1.0  0.00000  0.50000  0.26923  1.0000
  Ga  Ga6       1.0  0.25000  0.00000  0.26923  1.0000
  Al  Al6       1.0  0.25000  0.50000  0.23077  1.0000
  As  As11      1.0  0.12500  0.25000  0.25000  1.0000
  As  As12      1.0  0.37500  0.75000  0.25000  1.0000
  As  As13      1.0  0.37500  0.25000  0.28846  1.0000
  As  As14      1.0  0.12500  0.75000  0.28846  1.0000
  Al  Al7       1.0  0.00000  0.00000  0.30769  1.0000
  Ga  Ga7       1.0  0.00000  0.50000  0.34615  1.0000
  Ga  Ga8       1.0  0.25000  0.00000  0.34615  1.0000
  Al  Al8       1.0  0.25000  0.50000  0.30769  1.0000
  As  As15      1.0  0.12500  0.25000  0.32692  1.0000
  As  As16      1.0  0.37500  0.75000  0.32692  1.0000
  As  As17      1.0  0.37500  0.25000  0.36538  1.0000
  As  As18      1.0  0.12500  0.75000  0.36538  1.0000
  Ga  Ga9       1.0  0.00000  0.00000  0.38462  1.0000
  Ga  Ga10      1.0  0.00000  0.50000  0.42308  1.0000
  Ga  Ga11      1.0  0.25000  0.00000  0.42308  1.0000
  Ga  Ga12      1.0  0.25000  0.50000  0.38462  1.0000
  As  As19      1.0  0.12500  0.25000  0.40385  1.0000
  As  As20      1.0  0.37500  0.75000  0.40385  1.0000
  As  As21      1.0  0.37500  0.25000  0.44231  1.0000
  As  As22      1.0  0.12500  0.75000  0.44231  1.0000
  Ga  Ga13      1.0  0.00000  0.00000  0.46154  1.0000
  Ga  Ga14      1.0  0.00000  0.50000  0.50000  1.0000
  Ga  Ga15      1.0  0.25000  0.00000  0.50000  1.0000
  Ga  Ga16      1.0  0.25000  0.50000  0.46154  1.0000
  As  As23      1.0  0.12500  0.25000  0.48077  1.0000
  As  As24      1.0  0.37500  0.75000  0.48077  1.0000
  As  As25      1.0  0.37500  0.25000  0.51923  1.0000
  As  As26      1.0  0.12500  0.75000  0.51923  1.0000
  Ga  Ga17      1.0  0.00000  0.00000  0.53846  1.0000
  Al  Al9       1.0  0.00000  0.50000  0.57692  1.0000
  Al  Al10      1.0  0.25000  0.00000  0.57692  1.0000
  Ga  Ga18      1.0  0.25000  0.50000  0.53846  1.0000
  As  As27      1.0  0.12500  0.25000  0.55769  1.0000
  As  As28      1.0  0.37500  0.75000  0.55769  1.0000
  As  As29      1.0  0.37500  0.25000  0.59615  1.0000
  As  As30      1.0  0.12500  0.75000  0.59615  1.0000
  Ga  Ga19      1.0  0.00000  0.00000  0.61538  1.0000
  Ga  Ga20      1.0  0.00000  0.50000  0.65385  1.0000
  Ga  Ga21      1.0  0.25000  0.00000  0.65385  1.0000
  Ga  Ga22      1.0  0.25000  0.50000  0.61538  1.0000
  As  As31      1.0  0.12500  0.25000  0.63462  1.0000
  As  As32      1.0  0.37500  0.75000  0.63462  1.0000
  As  As33      1.0  0.37500  0.25000  0.67308  1.0000
  As  As34      1.0  0.12500  0.75000  0.67308  1.0000
  Al  Al11      1.0  0.00000  0.00000  0.69231  1.0000
  Ga  Ga23      1.0  0.00000  0.50000  0.73077  1.0000
  Ga  Ga24      1.0  0.25000  0.00000  0.73077  1.0000
  Al  Al12      1.0  0.25000  0.50000  0.69231  1.0000
  As  As35      1.0  0.12500  0.25000  0.71154  1.0000
  As  As36      1.0  0.37500  0.75000  0.71154  1.0000
  As  As37      1.0  0.37500  0.25000  0.75000  1.0000
  As  As38      1.0  0.12500  0.75000  0.75000  1.0000
  Al  Al13      1.0  0.00000  0.00000  0.76923  1.0000
  Ga  Ga25      1.0  0.00000  0.50000  0.80769  1.0000
  Ga  Ga26      1.0  0.25000  0.00000  0.80769  1.0000
  Al  Al14      1.0  0.25000  0.50000  0.76923  1.0000
  As  As39      1.0  0.12500  0.25000  0.78846  1.0000
  As  As40      1.0  0.37500  0.75000  0.78846  1.0000
  As  As41      1.0  0.37500  0.25000  0.82692  1.0000
  As  As42      1.0  0.12500  0.75000  0.82692  1.0000
  Al  Al15      1.0  0.00000  0.00000  0.84615  1.0000
  Ga  Ga27      1.0  0.00000  0.50000  0.88462  1.0000
  Ga  Ga28      1.0  0.25000  0.00000  0.88462  1.0000
  Al  Al16      1.0  0.25000  0.50000  0.84615  1.0000
  As  As43      1.0  0.12500  0.25000  0.86538  1.0000
  As  As44      1.0  0.37500  0.75000  0.86538  1.0000
  As  As45      1.0  0.37500  0.25000  0.90385  1.0000
  As  As46      1.0  0.12500  0.75000  0.90385  1.0000
  Al  Al17      1.0  0.00000  0.00000  0.92308  1.0000
  Al  Al18      1.0  0.25000  0.50000  0.92308  1.0000
  As  As47      1.0  0.12500  0.25000  0.94231  1.0000
  As  As48      1.0  0.37500  0.75000  0.94231  1.0000
  As  As49      1.0  0.87500  0.25000  0.05769  1.0000
  As  As50      1.0  0.62500  0.75000  0.05769  1.0000
  Al  Al19      1.0  0.50000  0.00000  0.07692  1.0000
  Ga  Ga29      1.0  0.50000  0.50000  0.11538  1.0000
  Ga  Ga30      1.0  0.75000  0.00000  0.11538  1.0000
  Al  Al20      1.0  0.75000  0.50000  0.07692  1.0000
  As  As51      1.0  0.62500  0.25000  0.09615  1.0000
  As  As52      1.0  0.87500  0.75000  0.09615  1.0000
  As  As53      1.0  0.87500  0.25000  0.13462  1.0000
  As  As54      1.0  0.62500  0.75000  0.13462  1.0000
  Al  Al21      1.0  0.50000  0.00000  0.15385  1.0000
  Ga  Ga31      1.0  0.50000  0.50000  0.19231  1.0000
  Ga  Ga32      1.0  0.75000  0.00000  0.19231  1.0000
  Al  Al22      1.0  0.75000  0.50000  0.15385  1.0000
  As  As55      1.0  0.62500  0.25000  0.17308  1.0000
  As  As56      1.0  0.87500  0.75000  0.17308  1.0000
  As  As57      1.0  0.87500  0.25000  0.21154  1.0000
  As  As58      1.0  0.62500  0.75000  0.21154  1.0000
  Al  Al23      1.0  0.50000  0.00000  0.23077  1.0000
  Ga  Ga33      1.0  0.50000  0.50000  0.26923  1.0000
  Ga  Ga34      1.0  0.75000  0.00000  0.26923  1.0000
  Al  Al24      1.0  0.75000  0.50000  0.23077  1.0000
  As  As59      1.0  0.62500  0.25000  0.25000  1.0000
  As  As60      1.0  0.87500  0.75000  0.25000  1.0000
  As  As61      1.0  0.87500  0.25000  0.28846  1.0000
  As  As62      1.0  0.62500  0.75000  0.28846  1.0000
  Al  Al25      1.0  0.50000  0.00000  0.30769  1.0000
  Ga  Ga35      1.0  0.50000  0.50000  0.34615  1.0000
  Ga  Ga36      1.0  0.75000  0.00000  0.34615  1.0000
  Al  Al26      1.0  0.75000  0.50000  0.30769  1.0000
  As  As63      1.0  0.62500  0.25000  0.32692  1.0000
  As  As64      1.0  0.87500  0.75000  0.32692  1.0000
  As  As65      1.0  0.87500  0.25000  0.36538  1.0000
  As  As66      1.0  0.62500  0.75000  0.36538  1.0000
  Ga  Ga37      1.0  0.50000  0.00000  0.38462  1.0000
  Ga  Ga38      1.0  0.50000  0.50000  0.42308  1.0000
  Ga  Ga39      1.0  0.75000  0.00000  0.42308  1.0000
  Ga  Ga40      1.0  0.75000  0.50000  0.38462  1.0000
  As  As67      1.0  0.62500  0.25000  0.40385  1.0000
  As  As68      1.0  0.87500  0.75000  0.40385  1.0000
  As  As69      1.0  0.87500  0.25000  0.44231  1.0000
  As  As70      1.0  0.62500  0.75000  0.44231  1.0000
  Ga  Ga41      1.0  0.50000  0.00000  0.46154  1.0000
  Ga  Ga42      1.0  0.50000  0.50000  0.50000  1.0000
  Ga  Ga43      1.0  0.75000  0.00000  0.50000  1.0000
  Ga  Ga44      1.0  0.75000  0.50000  0.46154  1.0000
  As  As71      1.0  0.62500  0.25000  0.48077  1.0000
  As  As72      1.0  0.87500  0.75000  0.48077  1.0000
  As  As73      1.0  0.87500  0.25000  0.51923  1.0000
  As  As74      1.0  0.62500  0.75000  0.51923  1.0000
  Ga  Ga45      1.0  0.50000  0.00000  0.53846  1.0000
  Al  Al27      1.0  0.50000  0.50000  0.57692  1.0000
  Al  Al28      1.0  0.75000  0.00000  0.57692  1.0000
  Ga  Ga46      1.0  0.75000  0.50000  0.53846  1.0000
  As  As75      1.0  0.62500  0.25000  0.55769  1.0000
  As  As76      1.0  0.87500  0.75000  0.55769  1.0000
  As  As77      1.0  0.87500  0.25000  0.59615  1.0000
  As  As78      1.0  0.62500  0.75000  0.59615  1.0000
  Ga  Ga47      1.0  0.50000  0.00000  0.61538  1.0000
  Ga  Ga48      1.0  0.50000  0.50000  0.65385  1.0000
  Ga  Ga49      1.0  0.75000  0.00000  0.65385  1.0000
  Ga  Ga50      1.0  0.75000  0.50000  0.61538  1.0000
  As  As79      1.0  0.62500  0.25000  0.63462  1.0000
  As  As80      1.0  0.87500  0.75000  0.63462  1.0000
  As  As81      1.0  0.87500  0.25000  0.67308  1.0000
  As  As82      1.0  0.62500  0.75000  0.67308  1.0000
  Al  Al29      1.0  0.50000  0.00000  0.69231  1.0000
  Ga  Ga51      1.0  0.50000  0.50000  0.73077  1.0000
  Ga  Ga52      1.0  0.75000  0.00000  0.73077  1.0000
  Al  Al30      1.0  0.75000  0.50000  0.69231  1.0000
  As  As83      1.0  0.62500  0.25000  0.71154  1.0000
  As  As84      1.0  0.87500  0.75000  0.71154  1.0000
  As  As85      1.0  0.87500  0.25000  0.75000  1.0000
  As  As86      1.0  0.62500  0.75000  0.75000  1.0000
  Al  Al31      1.0  0.50000  0.00000  0.76923  1.0000
  Ga  Ga53      1.0  0.50000  0.50000  0.80769  1.0000
  Ga  Ga54      1.0  0.75000  0.00000  0.80769  1.0000
  Al  Al32      1.0  0.75000  0.50000  0.76923  1.0000
  As  As87      1.0  0.62500  0.25000  0.78846  1.0000
  As  As88      1.0  0.87500  0.75000  0.78846  1.0000
  As  As89      1.0  0.87500  0.25000  0.82692  1.0000
  As  As90      1.0  0.62500  0.75000  0.82692  1.0000
  Al  Al33      1.0  0.50000  0.00000  0.84615  1.0000
  Ga  Ga55      1.0  0.50000  0.50000  0.88462  1.0000
  Ga  Ga56      1.0  0.75000  0.00000  0.88462  1.0000
  Al  Al34      1.0  0.75000  0.50000  0.84615  1.0000
  As  As91      1.0  0.62500  0.25000  0.86538  1.0000
  As  As92      1.0  0.87500  0.75000  0.86538  1.0000
  As  As93      1.0  0.87500  0.25000  0.90385  1.0000
  As  As94      1.0  0.62500  0.75000  0.90385  1.0000
  Al  Al35      1.0  0.50000  0.00000  0.92308  1.0000
  Al  Al36      1.0  0.75000  0.50000  0.92308  1.0000
  As  As95      1.0  0.62500  0.25000  0.94231  1.0000
  As  As96      1.0  0.87500  0.75000  0.94231  1.0000
