data_image0
_chemical_formula_structural       Ga4As4Al4As4Ga4As4Al4As4
_chemical_formula_sum              "Ga8 As16 Al8"
_cell_length_a       5.75018
_cell_length_b       5.75018
_cell_length_c       23.0007
_cell_angle_alpha    90
_cell_angle_beta     90
_cell_angle_gamma    90

_space_group_name_H-M_alt    "P 1"
_space_group_IT_number       1

loop_
  _space_group_symop_operation_xyz
  'x, y, z'

loop_
  _atom_site_type_symbol
  _atom_site_label
  _atom_site_symmetry_multiplicity
  _atom_site_fract_x
  _atom_site_fract_y
  _atom_site_fract_z
  _atom_site_occupancy
  Ga  Ga1       1.0  0.00000  0.00000  0.00000  1.0000
  Ga  Ga2       1.0  0.00000  0.50000  0.12500  1.0000
  Ga  Ga3       1.0  0.50000  0.00000  0.12500  1.0000
  Ga  Ga4       1.0  0.50000  0.50000  0.00000  1.0000
  As  As1       1.0  0.25000  0.25000  0.06250  1.0000
  As  As2       1.0  0.25000  0.75000  0.18750  1.0000
  As  As3       1.0  0.75000  0.25000  0.18750  1.0000
  As  As4       1.0  0.75000  0.75000  0.06250  1.0000
  Al  Al1       1.0  0.00000  0.00000  0.25000  1.0000
  Al  Al2       1.0  0.00000  0.50000  0.37500  1.0000
  Al  Al3       1.0  0.50000  0.00000  0.37500  1.0000
  Al  Al4       1.0  0.50000  0.50000  0.25000  1.0000
  As  As5       1.0  0.25000  0.25000  0.31250  1.0000
  As  As6       1.0  0.25000  0.75000  0.43750  1.0000
  As  As7       1.0  0.75000  0.25000  0.43750  1.0000
  As  As8       1.0  0.75000  0.75000  0.31250  1.0000
  Ga  Ga5       1.0  0.00000  0.00000  0.50000  1.0000
  Ga  Ga6       1.0  0.00000  0.50000  0.62500  1.0000
  Ga  Ga7       1.0  0.50000  0.00000  0.62500  1.0000
  Ga  Ga8       1.0  0.50000  0.50000  0.50000  1.0000
  As  As9       1.0  0.25000  0.25000  0.56250  1.0000
  As  As10      1.0  0.25000  0.75000  0.68750  1.0000
  As  As11      1.0  0.75000  0.25000  0.68750  1.0000
  As  As12      1.0  0.75000  0.75000  0.56250  1.0000
  Al  Al5       1.0  0.00000  0.00000  0.75000  1.0000
  Al  Al6       1.0  0.00000  0.50000  0.87500  1.0000
  Al  Al7       1.0  0.50000  0.00000  0.87500  1.0000
  Al  Al8       1.0  0.50000  0.50000  0.75000  1.0000
  As  As13      1.0  0.25000  0.25000  0.81250  1.0000
  As  As14      1.0  0.25000  0.75000  0.93750  1.0000
  As  As15      1.0  0.75000  0.25000  0.93750  1.0000
  As  As16      1.0  0.75000  0.75000  0.81250  1.0000
