CRYSTAL
PRIMVEC
 5.75018200000000 0.00000000000000 0.00000000000000
 0.00000000000000 5.75018200000000 0.00000000000000
 0.00000000000000 0.00000000000000 23.00072800000000
PRIMCOORD
 32 1
 31     0.00000000000000     0.00000000000000     0.00000000000000
 31     0.00000000000000     2.87509100000000     2.87509100000000
 31     2.87509100000000     0.00000000000000     2.87509100000000
 31     2.87509100000000     2.87509100000000     0.00000000000000
 33     1.43754550000000     1.43754550000000     1.43754550000000
 33     1.43754550000000     4.31263650000000     4.31263650000000
 33     4.31263650000000     1.43754550000000     4.31263650000000
 33     4.31263650000000     4.31263650000000     1.43754550000000
 13     0.00000000000000     0.00000000000000     5.75018200000000
 13     0.00000000000000     2.87509100000000     8.62527300000000
 13     2.87509100000000     0.00000000000000     8.62527300000000
 13     2.87509100000000     2.87509100000000     5.75018200000000
 33     1.43754550000000     1.43754550000000     7.18772750000000
 33     1.43754550000000     4.31263650000000    10.06281850000000
 33     4.31263650000000     1.43754550000000    10.06281850000000
 33     4.31263650000000     4.31263650000000     7.18772750000000
 31     0.00000000000000     0.00000000000000    11.50036400000000
 31     0.00000000000000     2.87509100000000    14.37545500000000
 31     2.87509100000000     0.00000000000000    14.37545500000000
 31     2.87509100000000     2.87509100000000    11.50036400000000
 33     1.43754550000000     1.43754550000000    12.93790950000000
 33     1.43754550000000     4.31263650000000    15.81300050000000
 33     4.31263650000000     1.43754550000000    15.81300050000000
 33     4.31263650000000     4.31263650000000    12.93790950000000
 13     0.00000000000000     0.00000000000000    17.25054600000000
 13     0.00000000000000     2.87509100000000    20.12563700000000
 13     2.87509100000000     0.00000000000000    20.12563700000000
 13     2.87509100000000     2.87509100000000    17.25054600000000
 33     1.43754550000000     1.43754550000000    18.68809150000000
 33     1.43754550000000     4.31263650000000    21.56318250000000
 33     4.31263650000000     1.43754550000000    21.56318250000000
 33     4.31263650000000     4.31263650000000    18.68809150000000
