data_image0
_chemical_formula_structural       GaAl2GaAs4GaAl2GaAs4GaAl2GaAs4Ga4As4Ga4As4
_chemical_formula_sum              "Ga14 Al6 As20"
_cell_length_a       5.628
_cell_length_b       5.628
_cell_length_c       28.14
_cell_angle_alpha    90
_cell_angle_beta     90
_cell_angle_gamma    90

_space_group_name_H-M_alt    "P 1"
_space_group_IT_number       1

loop_
  _space_group_symop_operation_xyz
  'x, y, z'

loop_
  _atom_site_type_symbol
  _atom_site_label
  _atom_site_symmetry_multiplicity
  _atom_site_fract_x
  _atom_site_fract_y
  _atom_site_fract_z
  _atom_site_occupancy
  Ga  Ga1       1.0  0.00000  0.00000  0.00000  1.0000
  Al  Al1       1.0  0.00000  0.50000  0.10000  1.0000
  Al  Al2       1.0  0.50000  0.00000  0.10000  1.0000
  Ga  Ga2       1.0  0.50000  0.50000  0.00000  1.0000
  As  As1       1.0  0.25000  0.25000  0.05000  1.0000
  As  As2       1.0  0.75000  0.75000  0.05000  1.0000
  As  As3       1.0  0.75000  0.25000  0.15000  1.0000
  As  As4       1.0  0.25000  0.75000  0.15000  1.0000
  Ga  Ga3       1.0  0.00000  0.00000  0.20000  1.0000
  Al  Al3       1.0  0.00000  0.50000  0.30000  1.0000
  Al  Al4       1.0  0.50000  0.00000  0.30000  1.0000
  Ga  Ga4       1.0  0.50000  0.50000  0.20000  1.0000
  As  As5       1.0  0.25000  0.25000  0.25000  1.0000
  As  As6       1.0  0.75000  0.75000  0.25000  1.0000
  As  As7       1.0  0.75000  0.25000  0.35000  1.0000
  As  As8       1.0  0.25000  0.75000  0.35000  1.0000
  Ga  Ga5       1.0  0.00000  0.00000  0.40000  1.0000
  Al  Al5       1.0  0.00000  0.50000  0.50000  1.0000
  Al  Al6       1.0  0.50000  0.00000  0.50000  1.0000
  Ga  Ga6       1.0  0.50000  0.50000  0.40000  1.0000
  As  As9       1.0  0.25000  0.25000  0.45000  1.0000
  As  As10      1.0  0.75000  0.75000  0.45000  1.0000
  As  As11      1.0  0.75000  0.25000  0.55000  1.0000
  As  As12      1.0  0.25000  0.75000  0.55000  1.0000
  Ga  Ga7       1.0  0.00000  0.00000  0.60000  1.0000
  Ga  Ga8       1.0  0.00000  0.50000  0.70000  1.0000
  Ga  Ga9       1.0  0.50000  0.00000  0.70000  1.0000
  Ga  Ga10      1.0  0.50000  0.50000  0.60000  1.0000
  As  As13      1.0  0.25000  0.25000  0.65000  1.0000
  As  As14      1.0  0.75000  0.75000  0.65000  1.0000
  As  As15      1.0  0.75000  0.25000  0.75000  1.0000
  As  As16      1.0  0.25000  0.75000  0.75000  1.0000
  Ga  Ga11      1.0  0.00000  0.00000  0.80000  1.0000
  Ga  Ga12      1.0  0.00000  0.50000  0.90000  1.0000
  Ga  Ga13      1.0  0.50000  0.00000  0.90000  1.0000
  Ga  Ga14      1.0  0.50000  0.50000  0.80000  1.0000
  As  As17      1.0  0.25000  0.25000  0.85000  1.0000
  As  As18      1.0  0.75000  0.75000  0.85000  1.0000
  As  As19      1.0  0.75000  0.25000  0.95000  1.0000
  As  As20      1.0  0.25000  0.75000  0.95000  1.0000
