data_image0
_chemical_formula_structural       Ga2Al2As4Ga
_chemical_formula_sum              "Ga3 Al2 As4"
_cell_length_a       5.75018
_cell_length_b       5.75018
_cell_length_c       11.5004
_cell_angle_alpha    90
_cell_angle_beta     90
_cell_angle_gamma    90

_space_group_name_H-M_alt    "P 1"
_space_group_IT_number       1

loop_
  _space_group_symop_operation_xyz
  'x, y, z'

loop_
  _atom_site_type_symbol
  _atom_site_label
  _atom_site_symmetry_multiplicity
  _atom_site_fract_x
  _atom_site_fract_y
  _atom_site_fract_z
  _atom_site_occupancy
  Ga  Ga1       1.0  0.12500  0.12500  0.25000  1.0000
  Ga  Ga2       1.0  0.62500  0.62500  0.25000  1.0000
  Al  Al1       1.0  0.62500  0.12500  0.50000  1.0000
  Al  Al2       1.0  0.12500  0.62500  0.50000  1.0000
  As  As1       1.0  0.37500  0.37500  0.37500  1.0000
  As  As2       1.0  0.37500  0.87500  0.62500  1.0000
  As  As3       1.0  0.87500  0.87500  0.37500  1.0000
  As  As4       1.0  0.87500  0.37500  0.62500  1.0000
  Ga  Ga3       1.0  0.62500  0.62500  0.75000  1.0000
